*SPEF "IEEE 1481-1998"
*DESIGN "clb_tile"
*DATE "Mon Nov 16 06:15:38 2020"
*VENDOR "AUC CSCE Department"
*PROGRAM "SPEF Extractor"
*VERSION "1.0"
*DESIGN_FLOW "PIN_CAP NONE"
*DIVIDER /
*DELIMITER :
*BUS_DELIMITER []
*T_UNIT 1.00000 NS
*C_UNIT 1.00000 PF
*R_UNIT 1.00000 OHM
*L_UNIT 1.00000 HENRY


*NAME_MAP
*0 clb_cin
*1 clb_cin_south
*2 clb_cin_west
*3 clb_cout
*4 clb_cout_south
*5 clb_cout_west
*6 clb_input[0]
*7 clb_input[10]
*8 clb_input[11]
*9 clb_input[12]
*10 clb_input[13]
*11 clb_input[14]
*12 clb_input[15]
*13 clb_input[16]
*14 clb_input[17]
*15 clb_input[18]
*16 clb_input[19]
*17 clb_input[1]
*18 clb_input[20]
*19 clb_input[21]
*20 clb_input[22]
*21 clb_input[23]
*22 clb_input[24]
*23 clb_input[25]
*24 clb_input[26]
*25 clb_input[27]
*26 clb_input[28]
*27 clb_input[29]
*28 clb_input[2]
*29 clb_input[30]
*30 clb_input[31]
*31 clb_input[3]
*32 clb_input[4]
*33 clb_input[5]
*34 clb_input[6]
*35 clb_input[7]
*36 clb_input[8]
*37 clb_input[9]
*38 clb_input_south[0]
*39 clb_input_south[10]
*40 clb_input_south[11]
*41 clb_input_south[12]
*42 clb_input_south[13]
*43 clb_input_south[14]
*44 clb_input_south[15]
*45 clb_input_south[16]
*46 clb_input_south[17]
*47 clb_input_south[18]
*48 clb_input_south[19]
*49 clb_input_south[1]
*50 clb_input_south[20]
*51 clb_input_south[21]
*52 clb_input_south[22]
*53 clb_input_south[23]
*54 clb_input_south[24]
*55 clb_input_south[25]
*56 clb_input_south[26]
*57 clb_input_south[27]
*58 clb_input_south[28]
*59 clb_input_south[29]
*60 clb_input_south[2]
*61 clb_input_south[30]
*62 clb_input_south[31]
*63 clb_input_south[3]
*64 clb_input_south[4]
*65 clb_input_south[5]
*66 clb_input_south[6]
*67 clb_input_south[7]
*68 clb_input_south[8]
*69 clb_input_south[9]
*70 clb_input_west[0]
*71 clb_input_west[10]
*72 clb_input_west[11]
*73 clb_input_west[12]
*74 clb_input_west[13]
*75 clb_input_west[14]
*76 clb_input_west[15]
*77 clb_input_west[16]
*78 clb_input_west[17]
*79 clb_input_west[18]
*80 clb_input_west[19]
*81 clb_input_west[1]
*82 clb_input_west[20]
*83 clb_input_west[21]
*84 clb_input_west[22]
*85 clb_input_west[23]
*86 clb_input_west[24]
*87 clb_input_west[25]
*88 clb_input_west[26]
*89 clb_input_west[27]
*90 clb_input_west[28]
*91 clb_input_west[29]
*92 clb_input_west[2]
*93 clb_input_west[30]
*94 clb_input_west[31]
*95 clb_input_west[3]
*96 clb_input_west[4]
*97 clb_input_west[5]
*98 clb_input_west[6]
*99 clb_input_west[7]
*100 clb_input_west[8]
*101 clb_input_west[9]
*102 clb_output[0]
*103 clb_output[1]
*104 clb_output[2]
*105 clb_output[3]
*106 clb_output[4]
*107 clb_output[5]
*108 clb_output[6]
*109 clb_output[7]
*110 clb_output_south[0]
*111 clb_output_south[1]
*112 clb_output_south[2]
*113 clb_output_south[3]
*114 clb_output_south[4]
*115 clb_output_south[5]
*116 clb_output_south[6]
*117 clb_output_south[7]
*118 clb_output_west[0]
*119 clb_output_west[1]
*120 clb_output_west[2]
*121 clb_output_west[3]
*122 clb_output_west[4]
*123 clb_output_west[5]
*124 clb_output_west[6]
*125 clb_output_west[7]
*126 clk
*127 conf_cin_type0[0]
*128 conf_cin_type0[1]
*129 conf_cin_type1
*130 conf_hcb[0]
*131 conf_hcb[100]
*132 conf_hcb[101]
*133 conf_hcb[102]
*134 conf_hcb[103]
*135 conf_hcb[10]
*136 conf_hcb[11]
*137 conf_hcb[12]
*138 conf_hcb[13]
*139 conf_hcb[14]
*140 conf_hcb[15]
*141 conf_hcb[16]
*142 conf_hcb[17]
*143 conf_hcb[18]
*144 conf_hcb[19]
*145 conf_hcb[1]
*146 conf_hcb[20]
*147 conf_hcb[21]
*148 conf_hcb[22]
*149 conf_hcb[23]
*150 conf_hcb[24]
*151 conf_hcb[25]
*152 conf_hcb[26]
*153 conf_hcb[27]
*154 conf_hcb[28]
*155 conf_hcb[29]
*156 conf_hcb[2]
*157 conf_hcb[30]
*158 conf_hcb[31]
*159 conf_hcb[32]
*160 conf_hcb[33]
*161 conf_hcb[34]
*162 conf_hcb[35]
*163 conf_hcb[36]
*164 conf_hcb[37]
*165 conf_hcb[38]
*166 conf_hcb[39]
*167 conf_hcb[3]
*168 conf_hcb[40]
*169 conf_hcb[41]
*170 conf_hcb[42]
*171 conf_hcb[43]
*172 conf_hcb[44]
*173 conf_hcb[45]
*174 conf_hcb[46]
*175 conf_hcb[47]
*176 conf_hcb[48]
*177 conf_hcb[49]
*178 conf_hcb[4]
*179 conf_hcb[50]
*180 conf_hcb[51]
*181 conf_hcb[52]
*182 conf_hcb[53]
*183 conf_hcb[54]
*184 conf_hcb[55]
*185 conf_hcb[56]
*186 conf_hcb[57]
*187 conf_hcb[58]
*188 conf_hcb[59]
*189 conf_hcb[5]
*190 conf_hcb[60]
*191 conf_hcb[61]
*192 conf_hcb[62]
*193 conf_hcb[63]
*194 conf_hcb[64]
*195 conf_hcb[65]
*196 conf_hcb[66]
*197 conf_hcb[67]
*198 conf_hcb[68]
*199 conf_hcb[69]
*200 conf_hcb[6]
*201 conf_hcb[70]
*202 conf_hcb[71]
*203 conf_hcb[72]
*204 conf_hcb[73]
*205 conf_hcb[74]
*206 conf_hcb[75]
*207 conf_hcb[76]
*208 conf_hcb[77]
*209 conf_hcb[78]
*210 conf_hcb[79]
*211 conf_hcb[7]
*212 conf_hcb[80]
*213 conf_hcb[81]
*214 conf_hcb[82]
*215 conf_hcb[83]
*216 conf_hcb[84]
*217 conf_hcb[85]
*218 conf_hcb[86]
*219 conf_hcb[87]
*220 conf_hcb[88]
*221 conf_hcb[89]
*222 conf_hcb[8]
*223 conf_hcb[90]
*224 conf_hcb[91]
*225 conf_hcb[92]
*226 conf_hcb[93]
*227 conf_hcb[94]
*228 conf_hcb[95]
*229 conf_hcb[96]
*230 conf_hcb[97]
*231 conf_hcb[98]
*232 conf_hcb[99]
*233 conf_hcb[9]
*234 conf_io_type0[0]
*235 conf_io_type0[10]
*236 conf_io_type0[11]
*237 conf_io_type0[12]
*238 conf_io_type0[13]
*239 conf_io_type0[14]
*240 conf_io_type0[15]
*241 conf_io_type0[16]
*242 conf_io_type0[17]
*243 conf_io_type0[18]
*244 conf_io_type0[19]
*245 conf_io_type0[1]
*246 conf_io_type0[20]
*247 conf_io_type0[21]
*248 conf_io_type0[22]
*249 conf_io_type0[23]
*250 conf_io_type0[24]
*251 conf_io_type0[25]
*252 conf_io_type0[26]
*253 conf_io_type0[27]
*254 conf_io_type0[28]
*255 conf_io_type0[29]
*256 conf_io_type0[2]
*257 conf_io_type0[30]
*258 conf_io_type0[31]
*259 conf_io_type0[32]
*260 conf_io_type0[33]
*261 conf_io_type0[34]
*262 conf_io_type0[35]
*263 conf_io_type0[36]
*264 conf_io_type0[37]
*265 conf_io_type0[38]
*266 conf_io_type0[39]
*267 conf_io_type0[3]
*268 conf_io_type0[40]
*269 conf_io_type0[41]
*270 conf_io_type0[42]
*271 conf_io_type0[43]
*272 conf_io_type0[44]
*273 conf_io_type0[45]
*274 conf_io_type0[46]
*275 conf_io_type0[47]
*276 conf_io_type0[48]
*277 conf_io_type0[49]
*278 conf_io_type0[4]
*279 conf_io_type0[50]
*280 conf_io_type0[51]
*281 conf_io_type0[52]
*282 conf_io_type0[53]
*283 conf_io_type0[54]
*284 conf_io_type0[55]
*285 conf_io_type0[56]
*286 conf_io_type0[57]
*287 conf_io_type0[58]
*288 conf_io_type0[59]
*289 conf_io_type0[5]
*290 conf_io_type0[60]
*291 conf_io_type0[61]
*292 conf_io_type0[62]
*293 conf_io_type0[63]
*294 conf_io_type0[6]
*295 conf_io_type0[7]
*296 conf_io_type0[8]
*297 conf_io_type0[9]
*298 conf_io_type1[0]
*299 conf_io_type1[10]
*300 conf_io_type1[11]
*301 conf_io_type1[12]
*302 conf_io_type1[13]
*303 conf_io_type1[14]
*304 conf_io_type1[15]
*305 conf_io_type1[16]
*306 conf_io_type1[17]
*307 conf_io_type1[18]
*308 conf_io_type1[19]
*309 conf_io_type1[1]
*310 conf_io_type1[20]
*311 conf_io_type1[21]
*312 conf_io_type1[22]
*313 conf_io_type1[23]
*314 conf_io_type1[24]
*315 conf_io_type1[25]
*316 conf_io_type1[26]
*317 conf_io_type1[27]
*318 conf_io_type1[28]
*319 conf_io_type1[29]
*320 conf_io_type1[2]
*321 conf_io_type1[30]
*322 conf_io_type1[31]
*323 conf_io_type1[3]
*324 conf_io_type1[4]
*325 conf_io_type1[5]
*326 conf_io_type1[6]
*327 conf_io_type1[7]
*328 conf_io_type1[8]
*329 conf_io_type1[9]
*330 conf_sb[0]
*331 conf_sb[10]
*332 conf_sb[11]
*333 conf_sb[12]
*334 conf_sb[13]
*335 conf_sb[14]
*336 conf_sb[15]
*337 conf_sb[16]
*338 conf_sb[17]
*339 conf_sb[18]
*340 conf_sb[19]
*341 conf_sb[1]
*342 conf_sb[20]
*343 conf_sb[21]
*344 conf_sb[22]
*345 conf_sb[23]
*346 conf_sb[24]
*347 conf_sb[25]
*348 conf_sb[26]
*349 conf_sb[27]
*350 conf_sb[28]
*351 conf_sb[29]
*352 conf_sb[2]
*353 conf_sb[30]
*354 conf_sb[31]
*355 conf_sb[32]
*356 conf_sb[33]
*357 conf_sb[34]
*358 conf_sb[35]
*359 conf_sb[36]
*360 conf_sb[37]
*361 conf_sb[38]
*362 conf_sb[39]
*363 conf_sb[3]
*364 conf_sb[40]
*365 conf_sb[41]
*366 conf_sb[42]
*367 conf_sb[43]
*368 conf_sb[44]
*369 conf_sb[45]
*370 conf_sb[46]
*371 conf_sb[47]
*372 conf_sb[4]
*373 conf_sb[5]
*374 conf_sb[6]
*375 conf_sb[7]
*376 conf_sb[8]
*377 conf_sb[9]
*378 conf_vcb[0]
*379 conf_vcb[100]
*380 conf_vcb[101]
*381 conf_vcb[102]
*382 conf_vcb[103]
*383 conf_vcb[10]
*384 conf_vcb[11]
*385 conf_vcb[12]
*386 conf_vcb[13]
*387 conf_vcb[14]
*388 conf_vcb[15]
*389 conf_vcb[16]
*390 conf_vcb[17]
*391 conf_vcb[18]
*392 conf_vcb[19]
*393 conf_vcb[1]
*394 conf_vcb[20]
*395 conf_vcb[21]
*396 conf_vcb[22]
*397 conf_vcb[23]
*398 conf_vcb[24]
*399 conf_vcb[25]
*400 conf_vcb[26]
*401 conf_vcb[27]
*402 conf_vcb[28]
*403 conf_vcb[29]
*404 conf_vcb[2]
*405 conf_vcb[30]
*406 conf_vcb[31]
*407 conf_vcb[32]
*408 conf_vcb[33]
*409 conf_vcb[34]
*410 conf_vcb[35]
*411 conf_vcb[36]
*412 conf_vcb[37]
*413 conf_vcb[38]
*414 conf_vcb[39]
*415 conf_vcb[3]
*416 conf_vcb[40]
*417 conf_vcb[41]
*418 conf_vcb[42]
*419 conf_vcb[43]
*420 conf_vcb[44]
*421 conf_vcb[45]
*422 conf_vcb[46]
*423 conf_vcb[47]
*424 conf_vcb[48]
*425 conf_vcb[49]
*426 conf_vcb[4]
*427 conf_vcb[50]
*428 conf_vcb[51]
*429 conf_vcb[52]
*430 conf_vcb[53]
*431 conf_vcb[54]
*432 conf_vcb[55]
*433 conf_vcb[56]
*434 conf_vcb[57]
*435 conf_vcb[58]
*436 conf_vcb[59]
*437 conf_vcb[5]
*438 conf_vcb[60]
*439 conf_vcb[61]
*440 conf_vcb[62]
*441 conf_vcb[63]
*442 conf_vcb[64]
*443 conf_vcb[65]
*444 conf_vcb[66]
*445 conf_vcb[67]
*446 conf_vcb[68]
*447 conf_vcb[69]
*448 conf_vcb[6]
*449 conf_vcb[70]
*450 conf_vcb[71]
*451 conf_vcb[72]
*452 conf_vcb[73]
*453 conf_vcb[74]
*454 conf_vcb[75]
*455 conf_vcb[76]
*456 conf_vcb[77]
*457 conf_vcb[78]
*458 conf_vcb[79]
*459 conf_vcb[7]
*460 conf_vcb[80]
*461 conf_vcb[81]
*462 conf_vcb[82]
*463 conf_vcb[83]
*464 conf_vcb[84]
*465 conf_vcb[85]
*466 conf_vcb[86]
*467 conf_vcb[87]
*468 conf_vcb[88]
*469 conf_vcb[89]
*470 conf_vcb[8]
*471 conf_vcb[90]
*472 conf_vcb[91]
*473 conf_vcb[92]
*474 conf_vcb[93]
*475 conf_vcb[94]
*476 conf_vcb[95]
*477 conf_vcb[96]
*478 conf_vcb[97]
*479 conf_vcb[98]
*480 conf_vcb[99]
*481 conf_vcb[9]
*482 cset
*483 east_clb_cin
*484 east_clb_cout
*485 east_clb_input[0]
*486 east_clb_input[10]
*487 east_clb_input[11]
*488 east_clb_input[12]
*489 east_clb_input[13]
*490 east_clb_input[14]
*491 east_clb_input[15]
*492 east_clb_input[16]
*493 east_clb_input[17]
*494 east_clb_input[18]
*495 east_clb_input[19]
*496 east_clb_input[1]
*497 east_clb_input[20]
*498 east_clb_input[21]
*499 east_clb_input[22]
*500 east_clb_input[23]
*501 east_clb_input[24]
*502 east_clb_input[25]
*503 east_clb_input[26]
*504 east_clb_input[27]
*505 east_clb_input[28]
*506 east_clb_input[29]
*507 east_clb_input[2]
*508 east_clb_input[30]
*509 east_clb_input[31]
*510 east_clb_input[3]
*511 east_clb_input[4]
*512 east_clb_input[5]
*513 east_clb_input[6]
*514 east_clb_input[7]
*515 east_clb_input[8]
*516 east_clb_input[9]
*517 east_clb_output[0]
*518 east_clb_output[1]
*519 east_clb_output[2]
*520 east_clb_output[3]
*521 east_clb_output[4]
*522 east_clb_output[5]
*523 east_clb_output[6]
*524 east_clb_output[7]
*525 east_double_in[0]
*526 east_double_in[1]
*527 east_double_in[2]
*528 east_double_in[3]
*529 east_double_out[0]
*530 east_double_out[1]
*531 east_double_out[2]
*532 east_double_out[3]
*533 east_single_in[0]
*534 east_single_in[1]
*535 east_single_in[2]
*536 east_single_in[3]
*537 east_single_out[0]
*538 east_single_out[1]
*539 east_single_out[2]
*540 east_single_out[3]
*541 horizontal_global[0]
*542 horizontal_global[1]
*543 horizontal_global[2]
*544 north_clb_cin
*545 north_clb_cout
*546 north_clb_input[0]
*547 north_clb_input[10]
*548 north_clb_input[11]
*549 north_clb_input[12]
*550 north_clb_input[13]
*551 north_clb_input[14]
*552 north_clb_input[15]
*553 north_clb_input[16]
*554 north_clb_input[17]
*555 north_clb_input[18]
*556 north_clb_input[19]
*557 north_clb_input[1]
*558 north_clb_input[20]
*559 north_clb_input[21]
*560 north_clb_input[22]
*561 north_clb_input[23]
*562 north_clb_input[24]
*563 north_clb_input[25]
*564 north_clb_input[26]
*565 north_clb_input[27]
*566 north_clb_input[28]
*567 north_clb_input[29]
*568 north_clb_input[2]
*569 north_clb_input[30]
*570 north_clb_input[31]
*571 north_clb_input[3]
*572 north_clb_input[4]
*573 north_clb_input[5]
*574 north_clb_input[6]
*575 north_clb_input[7]
*576 north_clb_input[8]
*577 north_clb_input[9]
*578 north_clb_output[0]
*579 north_clb_output[1]
*580 north_clb_output[2]
*581 north_clb_output[3]
*582 north_clb_output[4]
*583 north_clb_output[5]
*584 north_clb_output[6]
*585 north_clb_output[7]
*586 north_double_in[0]
*587 north_double_in[1]
*588 north_double_in[2]
*589 north_double_in[3]
*590 north_double_out[0]
*591 north_double_out[1]
*592 north_double_out[2]
*593 north_double_out[3]
*594 north_single_in[0]
*595 north_single_in[1]
*596 north_single_in[2]
*597 north_single_in[3]
*598 north_single_out[0]
*599 north_single_out[1]
*600 north_single_out[2]
*601 north_single_out[3]
*602 rst
*603 south_double_in[0]
*604 south_double_in[1]
*605 south_double_in[2]
*606 south_double_in[3]
*607 south_double_out[0]
*608 south_double_out[1]
*609 south_double_out[2]
*610 south_double_out[3]
*611 south_single_in[0]
*612 south_single_in[1]
*613 south_single_in[2]
*614 south_single_in[3]
*615 south_single_out[0]
*616 south_single_out[1]
*617 south_single_out[2]
*618 south_single_out[3]
*619 vertical_global[0]
*620 vertical_global[1]
*621 vertical_global[2]
*622 west_double_in[0]
*623 west_double_in[1]
*624 west_double_in[2]
*625 west_double_in[3]
*626 west_double_out[0]
*627 west_double_out[1]
*628 west_double_out[2]
*629 west_double_out[3]
*630 west_single_in[0]
*631 west_single_in[1]
*632 west_single_in[2]
*633 west_single_in[3]
*634 west_single_out[0]
*635 west_single_out[1]
*636 psn_net_0
*637 psn_net_11
*638 west_single_out[2]
*639 west_single_out[3]
*640 _0000_
*641 _0001_
*642 _0002_
*643 _0003_
*644 _0004_
*645 _0005_
*646 _0006_
*647 _0007_
*648 _0008_
*649 _0009_
*650 _0010_
*651 _0011_
*652 _0012_
*653 _0013_
*654 _0014_
*655 _0015_
*656 _0016_
*657 _0017_
*658 _0018_
*659 _0019_
*660 _0020_
*661 _0021_
*662 _0022_
*663 _0023_
*664 _0024_
*665 _0025_
*666 _0026_
*667 _0027_
*668 _0028_
*669 _0029_
*670 _0030_
*671 _0031_
*672 _0032_
*673 _0033_
*674 _0034_
*675 _0035_
*676 _0036_
*677 _0037_
*678 _0038_
*679 _0039_
*680 _0040_
*681 _0041_
*682 _0042_
*683 _0043_
*684 _0044_
*685 _0045_
*686 _0046_
*687 _0047_
*688 _0048_
*689 _0049_
*690 _0050_
*691 _0051_
*692 _0052_
*693 _0053_
*694 _0054_
*695 _0055_
*696 _0056_
*697 _0057_
*698 _0058_
*699 _0059_
*700 _0060_
*701 _0061_
*702 _0062_
*703 _0063_
*704 _0064_
*705 _0065_
*706 _0066_
*707 _0067_
*708 _0068_
*709 _0069_
*710 _0070_
*711 _0071_
*712 _0072_
*713 _0073_
*714 _0074_
*715 _0075_
*716 _0076_
*717 _0077_
*718 _0078_
*719 _0079_
*720 _0080_
*721 _0081_
*722 _0082_
*723 _0083_
*724 _0084_
*725 _0085_
*726 _0086_
*727 _0087_
*728 _0088_
*729 _0089_
*730 _0090_
*731 _0091_
*732 _0092_
*733 _0093_
*734 _0094_
*735 _0095_
*736 _0096_
*737 _0097_
*738 _0098_
*739 _0099_
*740 _0100_
*741 _0101_
*742 _0102_
*743 _0103_
*744 _0104_
*745 _0105_
*746 _0106_
*747 _0107_
*748 _0108_
*749 _0109_
*750 _0110_
*751 _0111_
*752 _0112_
*753 _0113_
*754 _0114_
*755 _0115_
*756 _0116_
*757 _0117_
*758 _0118_
*759 _0119_
*760 _0120_
*761 _0121_
*762 _0122_
*763 _0123_
*764 _0124_
*765 _0125_
*766 _0126_
*767 _0127_
*768 _0128_
*769 _0129_
*770 _0130_
*771 _0131_
*772 _0132_
*773 _0133_
*774 _0134_
*775 _0135_
*776 _0136_
*777 _0137_
*778 _0138_
*779 _0139_
*780 _0140_
*781 _0141_
*782 _0142_
*783 _0143_
*784 _0144_
*785 _0145_
*786 _0146_
*787 _0147_
*788 _0148_
*789 _0149_
*790 _0150_
*791 _0151_
*792 _0152_
*793 _0153_
*794 _0154_
*795 _0155_
*796 _0156_
*797 _0157_
*798 _0158_
*799 _0159_
*800 _0160_
*801 _0161_
*802 _0162_
*803 _0163_
*804 _0164_
*805 _0165_
*806 _0166_
*807 _0167_
*808 _0168_
*809 _0169_
*810 _0170_
*811 _0171_
*812 _0172_
*813 _0173_
*814 _0174_
*815 _0175_
*816 _0176_
*817 _0177_
*818 _0178_
*819 _0179_
*820 _0180_
*821 _0181_
*822 _0182_
*823 _0183_
*824 _0184_
*825 _0185_
*826 _0186_
*827 _0187_
*828 _0188_
*829 _0189_
*830 _0190_
*831 _0191_
*832 _0192_
*833 _0193_
*834 _0194_
*835 _0195_
*836 _0196_
*837 _0197_
*838 _0198_
*839 _0199_
*840 _0200_
*841 _0201_
*842 _0202_
*843 _0203_
*844 _0204_
*845 _0205_
*846 _0206_
*847 _0207_
*848 _0208_
*849 _0209_
*850 _0210_
*851 _0211_
*852 _0212_
*853 _0213_
*854 _0214_
*855 _0215_
*856 _0216_
*857 _0217_
*858 _0218_
*859 _0219_
*860 _0220_
*861 _0221_
*862 _0222_
*863 _0223_
*864 _0224_
*865 _0225_
*866 _0226_
*867 _0227_
*868 _0228_
*869 _0229_
*870 _0230_
*871 _0231_
*872 _0232_
*873 _0233_
*874 _0234_
*875 _0235_
*876 _0236_
*877 _0237_
*878 _0238_
*879 _0239_
*880 _0240_
*881 _0241_
*882 _0242_
*883 _0243_
*884 _0244_
*885 _0245_
*886 _0246_
*887 _0247_
*888 _0248_
*889 _0249_
*890 _0250_
*891 _0251_
*892 _0252_
*893 _0253_
*894 _0254_
*895 _0255_
*896 _0256_
*897 _0257_
*898 _0258_
*899 _0259_
*900 _0260_
*901 _0261_
*902 _0262_
*903 _0263_
*904 _0264_
*905 _0265_
*906 _0266_
*907 _0267_
*908 _0268_
*909 _0269_
*910 _0270_
*911 _0271_
*912 _0272_
*913 _0273_
*914 _0274_
*915 _0275_
*916 _0276_
*917 _0277_
*918 _0278_
*919 _0279_
*920 _0280_
*921 _0281_
*922 _0282_
*923 _0283_
*924 _0284_
*925 _0285_
*926 _0286_
*927 _0287_
*928 _0288_
*929 _0289_
*930 _0290_
*931 _0291_
*932 _0292_
*933 _0293_
*934 _0294_
*935 _0295_
*936 _0296_
*937 _0297_
*938 _0298_
*939 _0299_
*940 _0300_
*941 _0301_
*942 _0302_
*943 _0303_
*944 _0304_
*945 _0305_
*946 _0306_
*947 _0307_
*948 _0308_
*949 _0309_
*950 _0310_
*951 _0311_
*952 _0312_
*953 _0313_
*954 _0314_
*955 _0315_
*956 _0316_
*957 _0317_
*958 _0318_
*959 _0319_
*960 _0320_
*961 _0321_
*962 _0322_
*963 _0323_
*964 _0324_
*965 _0325_
*966 _0326_
*967 _0327_
*968 _0328_
*969 _0329_
*970 _0330_
*971 _0331_
*972 _0332_
*973 _0333_
*974 _0334_
*975 _0335_
*976 _0336_
*977 _0337_
*978 _0338_
*979 _0339_
*980 _0340_
*981 _0341_
*982 _0342_
*983 _0343_
*984 _0344_
*985 _0345_
*986 _0346_
*987 _0347_
*988 _0348_
*989 _0349_
*990 _0350_
*991 _0351_
*992 _0352_
*993 _0353_
*994 _0354_
*995 _0355_
*996 _0356_
*997 _0357_
*998 _0358_
*999 _0359_
*1000 _0360_
*1001 _0361_
*1002 _0362_
*1003 _0363_
*1004 _0364_
*1005 _0365_
*1006 _0366_
*1007 _0367_
*1008 _0368_
*1009 _0369_
*1010 _0370_
*1011 _0371_
*1012 _0372_
*1013 _0373_
*1014 _0374_
*1015 _0375_
*1016 _0376_
*1017 _0377_
*1018 _0378_
*1019 _0379_
*1020 _0380_
*1021 _0381_
*1022 _0382_
*1023 _0383_
*1024 _0384_
*1025 _0385_
*1026 _0386_
*1027 _0387_
*1028 _0388_
*1029 _0389_
*1030 _0390_
*1031 _0391_
*1032 _0392_
*1033 _0393_
*1034 _0394_
*1035 _0395_
*1036 _0396_
*1037 _0397_
*1038 _0398_
*1039 _0399_
*1040 _0400_
*1041 _0401_
*1042 _0402_
*1043 _0403_
*1044 _0404_
*1045 _0405_
*1046 _0406_
*1047 _0407_
*1048 _0408_
*1049 _0409_
*1050 _0410_
*1051 _0411_
*1052 _0412_
*1053 _0413_
*1054 _0414_
*1055 _0415_
*1056 _0416_
*1057 _0417_
*1058 _0418_
*1059 _0419_
*1060 _0420_
*1061 _0421_
*1062 _0422_
*1063 _0423_
*1064 _0424_
*1065 _0425_
*1066 _0426_
*1067 _0427_
*1068 _0428_
*1069 _0429_
*1070 _0430_
*1071 _0431_
*1072 _0432_
*1073 _0433_
*1074 _0434_
*1075 _0435_
*1076 _0436_
*1077 _0437_
*1078 _0438_
*1079 _0439_
*1080 _0440_
*1081 _0441_
*1082 _0442_
*1083 _0443_
*1084 _0444_
*1085 _0445_
*1086 _0446_
*1087 _0447_
*1088 _0448_
*1089 _0449_
*1090 _0450_
*1091 _0451_
*1092 _0452_
*1093 _0453_
*1094 _0454_
*1095 _0455_
*1096 _0456_
*1097 _0457_
*1098 _0458_
*1099 _0459_
*1100 _0460_
*1101 _0461_
*1102 _0462_
*1103 _0463_
*1104 _0464_
*1105 _0465_
*1106 _0466_
*1107 _0467_
*1108 _0468_
*1109 _0469_
*1110 _0470_
*1111 _0471_
*1112 _0472_
*1113 _0473_
*1114 _0474_
*1115 _0475_
*1116 _0476_
*1117 _0477_
*1118 _0478_
*1119 _0479_
*1120 _0480_
*1121 _0481_
*1122 _0482_
*1123 _0483_
*1124 _0484_
*1125 _0485_
*1126 _0486_
*1127 _0487_
*1128 _0488_
*1129 _0489_
*1130 _0490_
*1131 _0491_
*1132 _0492_
*1133 _0493_
*1134 _0494_
*1135 _0495_
*1136 _0496_
*1137 _0497_
*1138 _0498_
*1139 _0499_
*1140 _0500_
*1141 _0501_
*1142 _0502_
*1143 _0503_
*1144 _0504_
*1145 _0505_
*1146 _0506_
*1147 _0507_
*1148 _0508_
*1149 _0509_
*1150 _0510_
*1151 _0511_
*1152 _0512_
*1153 _0513_
*1154 _0514_
*1155 _0515_
*1156 _0516_
*1157 _0517_
*1158 _0518_
*1159 _0519_
*1160 _0520_
*1161 _0521_
*1162 _0522_
*1163 _0523_
*1164 _0524_
*1165 _0525_
*1166 _0526_
*1167 _0527_
*1168 _0528_
*1169 _0529_
*1170 _0530_
*1171 _0531_
*1172 _0532_
*1173 _0533_
*1174 _0534_
*1175 _0535_
*1176 _0536_
*1177 _0537_
*1178 _0538_
*1179 _0539_
*1180 _0540_
*1181 _0541_
*1182 _0542_
*1183 _0543_
*1184 _0544_
*1185 _0545_
*1186 _0546_
*1187 _0547_
*1188 _0548_
*1189 _0549_
*1190 _0550_
*1191 _0551_
*1192 _0552_
*1193 _0553_
*1194 _0554_
*1195 _0555_
*1196 _0556_
*1197 _0557_
*1198 _0558_
*1199 _0559_
*1200 _0560_
*1201 _0561_
*1202 _0562_
*1203 _0563_
*1204 _0564_
*1205 _0565_
*1206 _0566_
*1207 _0567_
*1208 _0568_
*1209 _0569_
*1210 _0570_
*1211 _0571_
*1212 _0572_
*1213 _0573_
*1214 _0574_
*1215 _0575_
*1216 _0576_
*1217 _0577_
*1218 _0578_
*1219 _0579_
*1220 _0580_
*1221 _0581_
*1222 _0582_
*1223 _0583_
*1224 _0584_
*1225 _0585_
*1226 _0586_
*1227 _0587_
*1228 _0588_
*1229 _0589_
*1230 _0590_
*1231 _0591_
*1232 _0592_
*1233 _0593_
*1234 _0594_
*1235 _0595_
*1236 _0596_
*1237 _0597_
*1238 _0598_
*1239 _0599_
*1240 _0600_
*1241 _0601_
*1242 _0602_
*1243 _0603_
*1244 _0604_
*1245 _0605_
*1246 _0606_
*1247 _0607_
*1248 _0608_
*1249 _0609_
*1250 _0610_
*1251 _0611_
*1252 _0612_
*1253 _0613_
*1254 _0614_
*1255 _0615_
*1256 _0616_
*1257 _0617_
*1258 _0618_
*1259 _0619_
*1260 _0620_
*1261 _0621_
*1262 _0622_
*1263 _0623_
*1264 _0624_
*1265 _0625_
*1266 _0626_
*1267 _0627_
*1268 _0628_
*1269 _0629_
*1270 _0630_
*1271 _0631_
*1272 _0632_
*1273 _0633_
*1274 _0634_
*1275 _0635_
*1276 _0636_
*1277 _0637_
*1278 _0638_
*1279 _0639_
*1280 _0640_
*1281 _0641_
*1282 _0642_
*1283 _0643_
*1284 _0644_
*1285 _0645_
*1286 _0646_
*1287 _0647_
*1288 _0648_
*1289 _0649_
*1290 _0650_
*1291 _0651_
*1292 _0652_
*1293 _0653_
*1294 _0654_
*1295 _0655_
*1296 _0656_
*1297 _0657_
*1298 _0658_
*1299 _0659_
*1300 _0660_
*1301 _0661_
*1302 _0662_
*1303 _0663_
*1304 _0664_
*1305 _0665_
*1306 _0666_
*1307 _0667_
*1308 _0668_
*1309 _0669_
*1310 _0670_
*1311 _0671_
*1312 _0672_
*1313 _0673_
*1314 _0674_
*1315 _0675_
*1316 _0676_
*1317 _0677_
*1318 _0678_
*1319 _0679_
*1320 _0680_
*1321 _0681_
*1322 _0682_
*1323 _0683_
*1324 _0684_
*1325 _0685_
*1326 _0686_
*1327 _0687_
*1328 _0688_
*1329 _0689_
*1330 _0690_
*1331 _0691_
*1332 _0692_
*1333 _0693_
*1334 _0694_
*1335 _0695_
*1336 _0696_
*1337 _0697_
*1338 _0698_
*1339 _0699_
*1340 _0700_
*1341 _0701_
*1342 _0702_
*1343 _0703_
*1344 _0704_
*1345 _0705_
*1346 _0706_
*1347 _0707_
*1348 _0708_
*1349 _0709_
*1350 _0710_
*1351 _0711_
*1352 _0712_
*1353 _0713_
*1354 _0714_
*1355 _0715_
*1356 _0716_
*1357 _0717_
*1358 _0718_
*1359 _0719_
*1360 _0720_
*1361 _0721_
*1362 _0722_
*1363 _0723_
*1364 _0724_
*1365 _0725_
*1366 _0726_
*1367 _0727_
*1368 _0728_
*1369 _0729_
*1370 _0730_
*1371 _0731_
*1372 _0732_
*1373 _0733_
*1374 _0734_
*1375 _0735_
*1376 _0736_
*1377 _0737_
*1378 _0738_
*1379 _0739_
*1380 _0740_
*1381 _0741_
*1382 _0742_
*1383 _0743_
*1384 _0744_
*1385 _0745_
*1386 _0746_
*1387 _0747_
*1388 _0748_
*1389 _0749_
*1390 _0750_
*1391 _0751_
*1392 _0752_
*1393 _0753_
*1394 _0754_
*1395 _0755_
*1396 _0756_
*1397 _0757_
*1398 _0758_
*1399 _0759_
*1400 _0760_
*1401 _0761_
*1402 _0762_
*1403 _0763_
*1404 _0764_
*1405 _0765_
*1406 _0766_
*1407 _0767_
*1408 _0768_
*1409 _0769_
*1410 _0770_
*1411 _0771_
*1412 _0772_
*1413 _0773_
*1414 _0774_
*1415 _0775_
*1416 _0776_
*1417 _0777_
*1418 _0778_
*1419 _0779_
*1420 _0780_
*1421 _0781_
*1422 _0782_
*1423 _0783_
*1424 _0784_
*1425 _0785_
*1426 _0786_
*1427 _0787_
*1428 _0788_
*1429 _0789_
*1430 _0790_
*1431 _0791_
*1432 _0792_
*1433 _0793_
*1434 _0794_
*1435 _0795_
*1436 _0796_
*1437 _0797_
*1438 _0798_
*1439 _0799_
*1440 _0800_
*1441 _0801_
*1442 _0802_
*1443 _0803_
*1444 _0804_
*1445 _0805_
*1446 _0806_
*1447 _0807_
*1448 _0808_
*1449 _0809_
*1450 _0810_
*1451 _0811_
*1452 _0812_
*1453 _0813_
*1454 _0814_
*1455 _0815_
*1456 _0816_
*1457 _0817_
*1458 _0818_
*1459 _0819_
*1460 _0820_
*1461 _0821_
*1462 _0822_
*1463 _0823_
*1464 _0824_
*1465 _0825_
*1466 _0826_
*1467 _0827_
*1468 _0828_
*1469 _0829_
*1470 _0830_
*1471 _0831_
*1472 _0832_
*1473 _0833_
*1474 _0834_
*1475 _0835_
*1476 _0836_
*1477 _0837_
*1478 _0838_
*1479 _0839_
*1480 _0840_
*1481 _0841_
*1482 _0842_
*1483 _0843_
*1484 _0844_
*1485 _0845_
*1486 _0846_
*1487 _0847_
*1488 _0848_
*1489 _0849_
*1490 _0850_
*1491 _0851_
*1492 _0852_
*1493 _0853_
*1494 _0854_
*1495 _0855_
*1496 _0856_
*1497 _0857_
*1498 _0858_
*1499 _0859_
*1500 _0860_
*1501 _0861_
*1502 _0862_
*1503 _0863_
*1504 _0864_
*1505 _0865_
*1506 _0866_
*1507 _0867_
*1508 _0868_
*1509 _0869_
*1510 _0870_
*1511 _0871_
*1512 _0872_
*1513 _0873_
*1514 _0874_
*1515 _0875_
*1516 _0876_
*1517 _0877_
*1518 _0878_
*1519 _0879_
*1520 _0880_
*1521 _0881_
*1522 _0882_
*1523 _0883_
*1524 _0884_
*1525 _0885_
*1526 _0886_
*1527 _0887_
*1528 _0888_
*1529 _0889_
*1530 _0890_
*1531 _0891_
*1532 _0892_
*1533 _0893_
*1534 _0894_
*1535 _0895_
*1536 _0896_
*1537 _0897_
*1538 _0898_
*1539 _0899_
*1540 _0900_
*1541 _0901_
*1542 _0902_
*1543 _0903_
*1544 _0904_
*1545 _0905_
*1546 _0906_
*1547 _0907_
*1548 _0908_
*1549 _0909_
*1550 _0910_
*1551 _0911_
*1552 _0912_
*1553 _0913_
*1554 _0914_
*1555 _0915_
*1556 _0916_
*1557 _0917_
*1558 _0918_
*1559 _0919_
*1560 _0920_
*1561 _0921_
*1562 _0922_
*1563 _0923_
*1564 _0924_
*1565 _0925_
*1566 _0926_
*1567 _0927_
*1568 _0928_
*1569 _0929_
*1570 _0930_
*1571 _0931_
*1572 _0932_
*1573 _0933_
*1574 _0934_
*1575 _0935_
*1576 _0936_
*1577 _0937_
*1578 _0938_
*1579 _0939_
*1580 _0940_
*1581 _0941_
*1582 _0942_
*1583 _0943_
*1584 _0944_
*1585 _0945_
*1586 _0946_
*1587 _0947_
*1588 _0948_
*1589 _0949_
*1590 _0950_
*1591 _0951_
*1592 _0952_
*1593 _0953_
*1594 _0954_
*1595 _0955_
*1596 _0956_
*1597 _0957_
*1598 _0958_
*1599 _0959_
*1600 _0960_
*1601 _0961_
*1602 _0962_
*1603 _0963_
*1604 _0964_
*1605 _0965_
*1606 _0966_
*1607 _0967_
*1608 _0968_
*1609 _0969_
*1610 _0970_
*1611 _0971_
*1612 _0972_
*1613 _0973_
*1614 _0974_
*1615 _0975_
*1616 _0976_
*1617 _0977_
*1618 _0978_
*1619 _0979_
*1620 _0980_
*1621 _0981_
*1622 _0982_
*1623 _0983_
*1624 _0984_
*1625 _0985_
*1626 _0986_
*1627 _0987_
*1628 _0988_
*1629 _0989_
*1630 _0990_
*1631 _0991_
*1632 _0992_
*1633 _0993_
*1634 _0994_
*1635 _0995_
*1636 _0996_
*1637 _0997_
*1638 _0998_
*1639 _0999_
*1640 _1000_
*1641 _1001_
*1642 _1002_
*1643 _1003_
*1644 _1004_
*1645 _1005_
*1646 _1006_
*1647 _1007_
*1648 _1008_
*1649 _1009_
*1650 _1010_
*1651 _1011_
*1652 _1012_
*1653 _1013_
*1654 _1014_
*1655 _1015_
*1656 _1016_
*1657 _1017_
*1658 _1018_
*1659 _1019_
*1660 _1020_
*1661 _1021_
*1662 _1022_
*1663 _1023_
*1664 _1024_
*1665 _1025_
*1666 _1026_
*1667 _1027_
*1668 _1028_
*1669 _1029_
*1670 _1030_
*1671 _1031_
*1672 _1032_
*1673 _1033_
*1674 _1034_
*1675 _1035_
*1676 _1036_
*1677 _1037_
*1678 _1038_
*1679 _1039_
*1680 _1040_
*1681 _1041_
*1682 _1042_
*1683 _1043_
*1684 _1044_
*1685 _1045_
*1686 _1046_
*1687 _1047_
*1688 _1048_
*1689 _1049_
*1690 _1050_
*1691 _1051_
*1692 _1052_
*1693 _1053_
*1694 _1054_
*1695 _1055_
*1696 _1056_
*1697 _1057_
*1698 _1058_
*1699 _1059_
*1700 _1060_
*1701 _1061_
*1702 _1062_
*1703 _1063_
*1704 _1064_
*1705 _1065_
*1706 _1066_
*1707 _1067_
*1708 _1068_
*1709 _1069_
*1710 _1070_
*1711 _1071_
*1712 _1072_
*1713 _1073_
*1714 _1074_
*1715 _1075_
*1716 _1076_
*1717 _1077_
*1718 _1078_
*1719 _1079_
*1720 _1080_
*1721 _1081_
*1722 _1082_
*1723 _1083_
*1724 _1084_
*1725 _1085_
*1726 _1086_
*1727 _1087_
*1728 _1088_
*1729 _1089_
*1730 _1090_
*1731 _1091_
*1732 _1092_
*1733 _1093_
*1734 _1094_
*1735 _1095_
*1736 _1096_
*1737 _1097_
*1738 _1098_
*1739 _1099_
*1740 _1100_
*1741 _1101_
*1742 _1102_
*1743 _1103_
*1744 _1104_
*1745 _1105_
*1746 _1106_
*1747 _1107_
*1748 _1108_
*1749 _1109_
*1750 _1110_
*1751 _1111_
*1752 _1112_
*1753 _1113_
*1754 _1114_
*1755 _1115_
*1756 _1116_
*1757 _1117_
*1758 _1118_
*1759 _1119_
*1760 _1120_
*1761 _1121_
*1762 _1122_
*1763 _1123_
*1764 _1124_
*1765 _1125_
*1766 _1126_
*1767 _1127_
*1768 _1128_
*1769 _1129_
*1770 _1130_
*1771 _1131_
*1772 _1132_
*1773 _1133_
*1774 _1134_
*1775 _1135_
*1776 _1136_
*1777 _1137_
*1778 _1138_
*1779 _1139_
*1780 _1140_
*1781 _1141_
*1782 _1142_
*1783 _1143_
*1784 _1144_
*1785 _1145_
*1786 _1146_
*1787 _1147_
*1788 _1148_
*1789 _1149_
*1790 _1150_
*1791 _1151_
*1792 _1152_
*1793 _1153_
*1794 _1154_
*1795 _1155_
*1796 _1156_
*1797 _1157_
*1798 _1158_
*1799 _1159_
*1800 _1160_
*1801 _1161_
*1802 _1162_
*1803 _1163_
*1804 _1164_
*1805 _1165_
*1806 _1166_
*1807 _1167_
*1808 _1168_
*1809 _1169_
*1810 _1170_
*1811 _1171_
*1812 _1172_
*1813 _1173_
*1814 _1174_
*1815 _1175_
*1816 _1176_
*1817 _1177_
*1818 _1178_
*1819 _1179_
*1820 _1180_
*1821 _1181_
*1822 _1182_
*1823 _1183_
*1824 _1184_
*1825 _1185_
*1826 _1186_
*1827 _1187_
*1828 _1188_
*1829 _1189_
*1830 _1190_
*1831 _1191_
*1832 _1192_
*1833 _1193_
*1834 _1194_
*1835 _1195_
*1836 _1196_
*1837 _1197_
*1838 _1198_
*1839 _1199_
*1840 _1200_
*1841 _1201_
*1842 _1202_
*1843 _1203_
*1844 _1204_
*1845 _1205_
*1846 _1206_
*1847 _1207_
*1848 _1208_
*1849 _1209_
*1850 _1210_
*1851 _1211_
*1852 _1212_
*1853 _1213_
*1854 _1214_
*1855 _1215_
*1856 _1216_
*1857 _1217_
*1858 _1218_
*1859 _1219_
*1860 _1220_
*1861 _1221_
*1862 _1222_
*1863 _1223_
*1864 _1224_
*1865 _1225_
*1866 _1226_
*1867 _1227_
*1868 _1228_
*1869 _1229_
*1870 _1230_
*1871 _1231_
*1872 _1232_
*1873 _1233_
*1874 _1234_
*1875 _1235_
*1876 _1236_
*1877 _1237_
*1878 _1238_
*1879 _1239_
*1880 _1240_
*1881 _1241_
*1882 _1242_
*1883 _1243_
*1884 _1244_
*1885 _1245_
*1886 _1246_
*1887 _1247_
*1888 _1248_
*1889 _1249_
*1890 _1250_
*1891 _1251_
*1892 _1252_
*1893 _1253_
*1894 _1254_
*1895 _1255_
*1896 _1256_
*1897 _1257_
*1898 _1258_
*1899 _1259_
*1900 _1260_
*1901 _1261_
*1902 _1262_
*1903 _1263_
*1904 _1264_
*1905 _1265_
*1906 _1266_
*1907 _1267_
*1908 _1268_
*1909 _1269_
*1910 _1270_
*1911 _1271_
*1912 _1272_
*1913 _1273_
*1914 _1274_
*1915 _1275_
*1916 _1276_
*1917 _1277_
*1918 _1278_
*1919 _1279_
*1920 _1280_
*1921 _1281_
*1922 _1282_
*1923 _1283_
*1924 _1284_
*1925 _1285_
*1926 _1286_
*1927 _1287_
*1928 _1288_
*1929 _1289_
*1930 _1290_
*1931 _1291_
*1932 _1292_