* NGSPICE file created from clb_tile.ext - technology: sky130A

* Black-box entry subcircuit for sky130_fd_sc_hd__decap_8 abstract view
.subckt sky130_fd_sc_hd__decap_8 VGND VPWR
.ends

* Black-box entry subcircuit for sky130_fd_sc_hd__decap_12 abstract view
.subckt sky130_fd_sc_hd__decap_12 VGND VPWR
.ends

* Black-box entry subcircuit for sky130_fd_sc_hd__fill_1 abstract view
.subckt sky130_fd_sc_hd__fill_1 VGND VPWR
.ends

* Black-box entry subcircuit for sky130_fd_sc_hd__decap_6 abstract view
.subckt sky130_fd_sc_hd__decap_6 VGND VPWR
.ends

* Black-box entry subcircuit for sky130_fd_sc_hd__or2_4 abstract view
.subckt sky130_fd_sc_hd__or2_4 A B X VGND VPWR
.ends

* Black-box entry subcircuit for sky130_fd_sc_hd__tapvpwrvgnd_1 abstract view
.subckt sky130_fd_sc_hd__tapvpwrvgnd_1 VGND VPWR
.ends

* Black-box entry subcircuit for sky130_fd_sc_hd__and2_4 abstract view
.subckt sky130_fd_sc_hd__and2_4 A B X VGND VPWR
.ends

* Black-box entry subcircuit for sky130_fd_sc_hd__nor2_4 abstract view
.subckt sky130_fd_sc_hd__nor2_4 A B Y VGND VPWR
.ends

* Black-box entry subcircuit for sky130_fd_sc_hd__or3_4 abstract view
.subckt sky130_fd_sc_hd__or3_4 A B C X VGND VPWR
.ends

* Black-box entry subcircuit for sky130_fd_sc_hd__buf_1 abstract view
.subckt sky130_fd_sc_hd__buf_1 A X VGND VPWR
.ends

* Black-box entry subcircuit for sky130_fd_sc_hd__and4_4 abstract view
.subckt sky130_fd_sc_hd__and4_4 A B C D X VGND VPWR
.ends

* Black-box entry subcircuit for sky130_fd_sc_hd__fill_2 abstract view
.subckt sky130_fd_sc_hd__fill_2 VGND VPWR
.ends

* Black-box entry subcircuit for sky130_fd_sc_hd__decap_3 abstract view
.subckt sky130_fd_sc_hd__decap_3 VGND VPWR
.ends

* Black-box entry subcircuit for sky130_fd_sc_hd__decap_4 abstract view
.subckt sky130_fd_sc_hd__decap_4 VGND VPWR
.ends

* Black-box entry subcircuit for sky130_fd_sc_hd__a32oi_4 abstract view
.subckt sky130_fd_sc_hd__a32oi_4 A1 A2 A3 B1 B2 Y VGND VPWR
.ends

* Black-box entry subcircuit for sky130_fd_sc_hd__a211o_4 abstract view
.subckt sky130_fd_sc_hd__a211o_4 A1 A2 B1 C1 X VGND VPWR
.ends

* Black-box entry subcircuit for sky130_fd_sc_hd__nor4_4 abstract view
.subckt sky130_fd_sc_hd__nor4_4 A B C D Y VGND VPWR
.ends

* Black-box entry subcircuit for sky130_fd_sc_hd__a21o_4 abstract view
.subckt sky130_fd_sc_hd__a21o_4 A1 A2 B1 X VGND VPWR
.ends

* Black-box entry subcircuit for sky130_fd_sc_hd__o21ai_4 abstract view
.subckt sky130_fd_sc_hd__o21ai_4 A1 A2 B1 Y VGND VPWR
.ends

* Black-box entry subcircuit for sky130_fd_sc_hd__dfxtp_4 abstract view
.subckt sky130_fd_sc_hd__dfxtp_4 D Q CLK VGND VPWR
.ends

* Black-box entry subcircuit for sky130_fd_sc_hd__a21oi_4 abstract view
.subckt sky130_fd_sc_hd__a21oi_4 A1 A2 B1 Y VGND VPWR
.ends

* Black-box entry subcircuit for sky130_fd_sc_hd__clkbuf_1 abstract view
.subckt sky130_fd_sc_hd__clkbuf_1 A X VGND VPWR
.ends

* Black-box entry subcircuit for sky130_fd_sc_hd__inv_8 abstract view
.subckt sky130_fd_sc_hd__inv_8 A Y VGND VPWR
.ends

* Black-box entry subcircuit for sky130_fd_sc_hd__and3_4 abstract view
.subckt sky130_fd_sc_hd__and3_4 A B C X VGND VPWR
.ends

* Black-box entry subcircuit for sky130_fd_sc_hd__or4_4 abstract view
.subckt sky130_fd_sc_hd__or4_4 A B C D X VGND VPWR
.ends

* Black-box entry subcircuit for sky130_fd_sc_hd__o21a_4 abstract view
.subckt sky130_fd_sc_hd__o21a_4 A1 A2 B1 X VGND VPWR
.ends

* Black-box entry subcircuit for sky130_fd_sc_hd__conb_1 abstract view
.subckt sky130_fd_sc_hd__conb_1 HI LO VGND VPWR
.ends

* Black-box entry subcircuit for sky130_fd_sc_hd__nand2_4 abstract view
.subckt sky130_fd_sc_hd__nand2_4 A B Y VGND VPWR
.ends

* Black-box entry subcircuit for sky130_fd_sc_hd__diode_2 abstract view
.subckt sky130_fd_sc_hd__diode_2 DIODE VGND VPWR
.ends

* Black-box entry subcircuit for sky130_fd_sc_hd__a32o_4 abstract view
.subckt sky130_fd_sc_hd__a32o_4 A1 A2 A3 B1 B2 X VGND VPWR
.ends

* Black-box entry subcircuit for sky130_fd_sc_hd__o22a_4 abstract view
.subckt sky130_fd_sc_hd__o22a_4 A1 A2 B1 B2 X VGND VPWR
.ends

* Black-box entry subcircuit for sky130_fd_sc_hd__buf_2 abstract view
.subckt sky130_fd_sc_hd__buf_2 A X VGND VPWR
.ends

* Black-box entry subcircuit for sky130_fd_sc_hd__o32a_4 abstract view
.subckt sky130_fd_sc_hd__o32a_4 A1 A2 A3 B1 B2 X VGND VPWR
.ends

* Black-box entry subcircuit for sky130_fd_sc_hd__buf_8 abstract view
.subckt sky130_fd_sc_hd__buf_8 A X VGND VPWR
.ends

* Black-box entry subcircuit for sky130_fd_sc_hd__clkbuf_16 abstract view
.subckt sky130_fd_sc_hd__clkbuf_16 A X VGND VPWR
.ends

* Black-box entry subcircuit for sky130_fd_sc_hd__nor3_4 abstract view
.subckt sky130_fd_sc_hd__nor3_4 A B C Y VGND VPWR
.ends

* Black-box entry subcircuit for sky130_fd_sc_hd__a21boi_4 abstract view
.subckt sky130_fd_sc_hd__a21boi_4 A1 A2 B1_N Y VGND VPWR
.ends

.subckt clb_tile clb_cin clb_cin_south clb_cin_west clb_cout clb_cout_south clb_cout_west
+ clb_input[0] clb_input[10] clb_input[11] clb_input[12] clb_input[13] clb_input[14]
+ clb_input[15] clb_input[16] clb_input[17] clb_input[18] clb_input[19] clb_input[1]
+ clb_input[20] clb_input[21] clb_input[22] clb_input[23] clb_input[24] clb_input[25]
+ clb_input[26] clb_input[27] clb_input[28] clb_input[29] clb_input[2] clb_input[30]
+ clb_input[31] clb_input[3] clb_input[4] clb_input[5] clb_input[6] clb_input[7] clb_input[8]
+ clb_input[9] clb_input_south[0] clb_input_south[10] clb_input_south[11] clb_input_south[12]
+ clb_input_south[13] clb_input_south[14] clb_input_south[15] clb_input_south[16]
+ clb_input_south[17] clb_input_south[18] clb_input_south[19] clb_input_south[1] clb_input_south[20]
+ clb_input_south[21] clb_input_south[22] clb_input_south[23] clb_input_south[24]
+ clb_input_south[25] clb_input_south[26] clb_input_south[27] clb_input_south[28]
+ clb_input_south[29] clb_input_south[2] clb_input_south[30] clb_input_south[31] clb_input_south[3]
+ clb_input_south[4] clb_input_south[5] clb_input_south[6] clb_input_south[7] clb_input_south[8]
+ clb_input_south[9] clb_input_west[0] clb_input_west[10] clb_input_west[11] clb_input_west[12]
+ clb_input_west[13] clb_input_west[14] clb_input_west[15] clb_input_west[16] clb_input_west[17]
+ clb_input_west[18] clb_input_west[19] clb_input_west[1] clb_input_west[20] clb_input_west[21]
+ clb_input_west[22] clb_input_west[23] clb_input_west[24] clb_input_west[25] clb_input_west[26]
+ clb_input_west[27] clb_input_west[28] clb_input_west[29] clb_input_west[2] clb_input_west[30]
+ clb_input_west[31] clb_input_west[3] clb_input_west[4] clb_input_west[5] clb_input_west[6]
+ clb_input_west[7] clb_input_west[8] clb_input_west[9] clb_output[0] clb_output[1]
+ clb_output[2] clb_output[3] clb_output[4] clb_output[5] clb_output[6] clb_output[7]
+ clb_output_south[0] clb_output_south[1] clb_output_south[2] clb_output_south[3]
+ clb_output_south[4] clb_output_south[5] clb_output_south[6] clb_output_south[7]
+ clb_output_west[0] clb_output_west[1] clb_output_west[2] clb_output_west[3] clb_output_west[4]
+ clb_output_west[5] clb_output_west[6] clb_output_west[7] clk conf_cin_type0[0] conf_cin_type0[1]
+ conf_cin_type1 conf_hcb[0] conf_hcb[100] conf_hcb[101] conf_hcb[102] conf_hcb[103]
+ conf_hcb[10] conf_hcb[11] conf_hcb[12] conf_hcb[13] conf_hcb[14] conf_hcb[15] conf_hcb[16]
+ conf_hcb[17] conf_hcb[18] conf_hcb[19] conf_hcb[1] conf_hcb[20] conf_hcb[21] conf_hcb[22]
+ conf_hcb[23] conf_hcb[24] conf_hcb[25] conf_hcb[26] conf_hcb[27] conf_hcb[28] conf_hcb[29]
+ conf_hcb[2] conf_hcb[30] conf_hcb[31] conf_hcb[32] conf_hcb[33] conf_hcb[34] conf_hcb[35]
+ conf_hcb[36] conf_hcb[37] conf_hcb[38] conf_hcb[39] conf_hcb[3] conf_hcb[40] conf_hcb[41]
+ conf_hcb[42] conf_hcb[43] conf_hcb[44] conf_hcb[45] conf_hcb[46] conf_hcb[47] conf_hcb[48]
+ conf_hcb[49] conf_hcb[4] conf_hcb[50] conf_hcb[51] conf_hcb[52] conf_hcb[53] conf_hcb[54]
+ conf_hcb[55] conf_hcb[56] conf_hcb[57] conf_hcb[58] conf_hcb[59] conf_hcb[5] conf_hcb[60]
+ conf_hcb[61] conf_hcb[62] conf_hcb[63] conf_hcb[64] conf_hcb[65] conf_hcb[66] conf_hcb[67]
+ conf_hcb[68] conf_hcb[69] conf_hcb[6] conf_hcb[70] conf_hcb[71] conf_hcb[72] conf_hcb[73]
+ conf_hcb[74] conf_hcb[75] conf_hcb[76] conf_hcb[77] conf_hcb[78] conf_hcb[79] conf_hcb[7]
+ conf_hcb[80] conf_hcb[81] conf_hcb[82] conf_hcb[83] conf_hcb[84] conf_hcb[85] conf_hcb[86]
+ conf_hcb[87] conf_hcb[88] conf_hcb[89] conf_hcb[8] conf_hcb[90] conf_hcb[91] conf_hcb[92]
+ conf_hcb[93] conf_hcb[94] conf_hcb[95] conf_hcb[96] conf_hcb[97] conf_hcb[98] conf_hcb[99]
+ conf_hcb[9] conf_io_type0[0] conf_io_type0[10] conf_io_type0[11] conf_io_type0[12]
+ conf_io_type0[13] conf_io_type0[14] conf_io_type0[15] conf_io_type0[16] conf_io_type0[17]
+ conf_io_type0[18] conf_io_type0[19] conf_io_type0[1] conf_io_type0[20] conf_io_type0[21]
+ conf_io_type0[22] conf_io_type0[23] conf_io_type0[24] conf_io_type0[25] conf_io_type0[26]
+ conf_io_type0[27] conf_io_type0[28] conf_io_type0[29] conf_io_type0[2] conf_io_type0[30]
+ conf_io_type0[31] conf_io_type0[32] conf_io_type0[33] conf_io_type0[34] conf_io_type0[35]
+ conf_io_type0[36] conf_io_type0[37] conf_io_type0[38] conf_io_type0[39] conf_io_type0[3]
+ conf_io_type0[40] conf_io_type0[41] conf_io_type0[42] conf_io_type0[43] conf_io_type0[44]
+ conf_io_type0[45] conf_io_type0[46] conf_io_type0[47] conf_io_type0[48] conf_io_type0[49]
+ conf_io_type0[4] conf_io_type0[50] conf_io_type0[51] conf_io_type0[52] conf_io_type0[53]
+ conf_io_type0[54] conf_io_type0[55] conf_io_type0[56] conf_io_type0[57] conf_io_type0[58]
+ conf_io_type0[59] conf_io_type0[5] conf_io_type0[60] conf_io_type0[61] conf_io_type0[62]
+ conf_io_type0[63] conf_io_type0[6] conf_io_type0[7] conf_io_type0[8] conf_io_type0[9]
+ conf_io_type1[0] conf_io_type1[10] conf_io_type1[11] conf_io_type1[12] conf_io_type1[13]
+ conf_io_type1[14] conf_io_type1[15] conf_io_type1[16] conf_io_type1[17] conf_io_type1[18]
+ conf_io_type1[19] conf_io_type1[1] conf_io_type1[20] conf_io_type1[21] conf_io_type1[22]
+ conf_io_type1[23] conf_io_type1[24] conf_io_type1[25] conf_io_type1[26] conf_io_type1[27]
+ conf_io_type1[28] conf_io_type1[29] conf_io_type1[2] conf_io_type1[30] conf_io_type1[31]
+ conf_io_type1[3] conf_io_type1[4] conf_io_type1[5] conf_io_type1[6] conf_io_type1[7]
+ conf_io_type1[8] conf_io_type1[9] conf_sb[0] conf_sb[10] conf_sb[11] conf_sb[12]
+ conf_sb[13] conf_sb[14] conf_sb[15] conf_sb[16] conf_sb[17] conf_sb[18] conf_sb[19]
+ conf_sb[1] conf_sb[20] conf_sb[21] conf_sb[22] conf_sb[23] conf_sb[24] conf_sb[25]
+ conf_sb[26] conf_sb[27] conf_sb[28] conf_sb[29] conf_sb[2] conf_sb[30] conf_sb[31]
+ conf_sb[32] conf_sb[33] conf_sb[34] conf_sb[35] conf_sb[36] conf_sb[37] conf_sb[38]
+ conf_sb[39] conf_sb[3] conf_sb[40] conf_sb[41] conf_sb[42] conf_sb[43] conf_sb[44]
+ conf_sb[45] conf_sb[46] conf_sb[47] conf_sb[4] conf_sb[5] conf_sb[6] conf_sb[7]
+ conf_sb[8] conf_sb[9] conf_vcb[0] conf_vcb[100] conf_vcb[101] conf_vcb[102] conf_vcb[103]
+ conf_vcb[10] conf_vcb[11] conf_vcb[12] conf_vcb[13] conf_vcb[14] conf_vcb[15] conf_vcb[16]
+ conf_vcb[17] conf_vcb[18] conf_vcb[19] conf_vcb[1] conf_vcb[20] conf_vcb[21] conf_vcb[22]
+ conf_vcb[23] conf_vcb[24] conf_vcb[25] conf_vcb[26] conf_vcb[27] conf_vcb[28] conf_vcb[29]
+ conf_vcb[2] conf_vcb[30] conf_vcb[31] conf_vcb[32] conf_vcb[33] conf_vcb[34] conf_vcb[35]
+ conf_vcb[36] conf_vcb[37] conf_vcb[38] conf_vcb[39] conf_vcb[3] conf_vcb[40] conf_vcb[41]
+ conf_vcb[42] conf_vcb[43] conf_vcb[44] conf_vcb[45] conf_vcb[46] conf_vcb[47] conf_vcb[48]
+ conf_vcb[49] conf_vcb[4] conf_vcb[50] conf_vcb[51] conf_vcb[52] conf_vcb[53] conf_vcb[54]
+ conf_vcb[55] conf_vcb[56] conf_vcb[57] conf_vcb[58] conf_vcb[59] conf_vcb[5] conf_vcb[60]
+ conf_vcb[61] conf_vcb[62] conf_vcb[63] conf_vcb[64] conf_vcb[65] conf_vcb[66] conf_vcb[67]
+ conf_vcb[68] conf_vcb[69] conf_vcb[6] conf_vcb[70] conf_vcb[71] conf_vcb[72] conf_vcb[73]
+ conf_vcb[74] conf_vcb[75] conf_vcb[76] conf_vcb[77] conf_vcb[78] conf_vcb[79] conf_vcb[7]
+ conf_vcb[80] conf_vcb[81] conf_vcb[82] conf_vcb[83] conf_vcb[84] conf_vcb[85] conf_vcb[86]
+ conf_vcb[87] conf_vcb[88] conf_vcb[89] conf_vcb[8] conf_vcb[90] conf_vcb[91] conf_vcb[92]
+ conf_vcb[93] conf_vcb[94] conf_vcb[95] conf_vcb[96] conf_vcb[97] conf_vcb[98] conf_vcb[99]
+ conf_vcb[9] cset east_clb_cin east_clb_cout east_clb_input[0] east_clb_input[10]
+ east_clb_input[11] east_clb_input[12] east_clb_input[13] east_clb_input[14] east_clb_input[15]
+ east_clb_input[16] east_clb_input[17] east_clb_input[18] east_clb_input[19] east_clb_input[1]
+ east_clb_input[20] east_clb_input[21] east_clb_input[22] east_clb_input[23] east_clb_input[24]
+ east_clb_input[25] east_clb_input[26] east_clb_input[27] east_clb_input[28] east_clb_input[29]
+ east_clb_input[2] east_clb_input[30] east_clb_input[31] east_clb_input[3] east_clb_input[4]
+ east_clb_input[5] east_clb_input[6] east_clb_input[7] east_clb_input[8] east_clb_input[9]
+ east_clb_output[0] east_clb_output[1] east_clb_output[2] east_clb_output[3] east_clb_output[4]
+ east_clb_output[5] east_clb_output[6] east_clb_output[7] east_double_in[0] east_double_in[1]
+ east_double_in[2] east_double_in[3] east_double_out[0] east_double_out[1] east_double_out[2]
+ east_double_out[3] east_single_in[0] east_single_in[1] east_single_in[2] east_single_in[3]
+ east_single_out[0] east_single_out[1] east_single_out[2] east_single_out[3] horizontal_global[0]
+ horizontal_global[1] horizontal_global[2] north_clb_cin north_clb_cout north_clb_input[0]
+ north_clb_input[10] north_clb_input[11] north_clb_input[12] north_clb_input[13]
+ north_clb_input[14] north_clb_input[15] north_clb_input[16] north_clb_input[17]
+ north_clb_input[18] north_clb_input[19] north_clb_input[1] north_clb_input[20] north_clb_input[21]
+ north_clb_input[22] north_clb_input[23] north_clb_input[24] north_clb_input[25]
+ north_clb_input[26] north_clb_input[27] north_clb_input[28] north_clb_input[29]
+ north_clb_input[2] north_clb_input[30] north_clb_input[31] north_clb_input[3] north_clb_input[4]
+ north_clb_input[5] north_clb_input[6] north_clb_input[7] north_clb_input[8] north_clb_input[9]
+ north_clb_output[0] north_clb_output[1] north_clb_output[2] north_clb_output[3]
+ north_clb_output[4] north_clb_output[5] north_clb_output[6] north_clb_output[7]
+ north_double_in[0] north_double_in[1] north_double_in[2] north_double_in[3] north_double_out[0]
+ north_double_out[1] north_double_out[2] north_double_out[3] north_single_in[0] north_single_in[1]
+ north_single_in[2] north_single_in[3] north_single_out[0] north_single_out[1] north_single_out[2]
+ north_single_out[3] rst south_double_in[0] south_double_in[1] south_double_in[2]
+ south_double_in[3] south_double_out[0] south_double_out[1] south_double_out[2] south_double_out[3]
+ south_single_in[0] south_single_in[1] south_single_in[2] south_single_in[3] south_single_out[0]
+ south_single_out[1] south_single_out[2] south_single_out[3] vertical_global[0] vertical_global[1]
+ vertical_global[2] west_double_in[0] west_double_in[1] west_double_in[2] west_double_in[3]
+ west_double_out[0] west_double_out[1] west_double_out[2] west_double_out[3] west_single_in[0]
+ west_single_in[1] west_single_in[2] west_single_in[3] west_single_out[0] west_single_out[1]
+ west_single_out[2] west_single_out[3] VPWR VGND
XFILLER_28_907 VGND VPWR sky130_fd_sc_hd__decap_8
XFILLER_94_361 VGND VPWR sky130_fd_sc_hd__decap_12
XFILLER_82_501 VGND VPWR sky130_fd_sc_hd__fill_1
XFILLER_67_586 VGND VPWR sky130_fd_sc_hd__decap_12
XFILLER_55_726 VGND VPWR sky130_fd_sc_hd__decap_6
XFILLER_55_704 VGND VPWR sky130_fd_sc_hd__fill_1
XFILLER_55_737 VGND VPWR sky130_fd_sc_hd__fill_1
XFILLER_27_428 VGND VPWR sky130_fd_sc_hd__decap_12
X_6914_ _4157_/Y _6914_/B _6972_/B VGND VPWR sky130_fd_sc_hd__or2_4
XFILLER_70_718 VGND VPWR sky130_fd_sc_hd__fill_1
XPHY_2408 VGND VPWR sky130_fd_sc_hd__tapvpwrvgnd_1
XFILLER_63_770 VGND VPWR sky130_fd_sc_hd__decap_12
XPHY_2419 VGND VPWR sky130_fd_sc_hd__tapvpwrvgnd_1
X_6845_ _6845_/A _6788_/X _6845_/X VGND VPWR sky130_fd_sc_hd__and2_4
XPHY_1707 VGND VPWR sky130_fd_sc_hd__tapvpwrvgnd_1
XFILLER_149_842 VGND VPWR sky130_fd_sc_hd__decap_12
X_3988_ _3981_/A conf_hcb[47] _3988_/Y VGND VPWR sky130_fd_sc_hd__nor2_4
X_6776_ _6776_/A _6776_/B _6778_/B VGND VPWR sky130_fd_sc_hd__and2_4
XPHY_1718 VGND VPWR sky130_fd_sc_hd__tapvpwrvgnd_1
XPHY_1729 VGND VPWR sky130_fd_sc_hd__tapvpwrvgnd_1
XFILLER_11_818 VGND VPWR sky130_fd_sc_hd__decap_12
XFILLER_22_166 VGND VPWR sky130_fd_sc_hd__decap_12
X_5727_ _5725_/Y _5726_/X _5728_/B VGND VPWR sky130_fd_sc_hd__and2_4
XFILLER_148_352 VGND VPWR sky130_fd_sc_hd__decap_12
XFILLER_148_396 VGND VPWR sky130_fd_sc_hd__fill_1
XFILLER_136_536 VGND VPWR sky130_fd_sc_hd__decap_8
X_5658_ _5658_/A _5658_/B _5657_/X _5658_/X VGND VPWR sky130_fd_sc_hd__or3_4
X_4609_ _5435_/B _5450_/B VGND VPWR sky130_fd_sc_hd__buf_1
X_5589_ _5553_/X _5589_/B _5589_/C _5589_/X VGND VPWR sky130_fd_sc_hd__or3_4
X_7328_ _7343_/A _4465_/X _7295_/A _4456_/X _7328_/X VGND VPWR sky130_fd_sc_hd__and4_4
XFILLER_132_764 VGND VPWR sky130_fd_sc_hd__decap_12
XFILLER_131_230 VGND VPWR sky130_fd_sc_hd__decap_12
XFILLER_117_88 VGND VPWR sky130_fd_sc_hd__decap_12
X_7259_ _4433_/Y _4439_/A _7229_/X _7225_/D _7259_/X VGND VPWR sky130_fd_sc_hd__and4_4
XFILLER_77_15 VGND VPWR sky130_fd_sc_hd__decap_12
XFILLER_104_477 VGND VPWR sky130_fd_sc_hd__fill_1
XFILLER_89_177 VGND VPWR sky130_fd_sc_hd__decap_6
XFILLER_77_306 VGND VPWR sky130_fd_sc_hd__decap_8
XFILLER_77_48 VGND VPWR sky130_fd_sc_hd__decap_12
XFILLER_58_520 VGND VPWR sky130_fd_sc_hd__fill_2
XFILLER_100_661 VGND VPWR sky130_fd_sc_hd__fill_1
XFILLER_73_501 VGND VPWR sky130_fd_sc_hd__decap_8
XFILLER_58_553 VGND VPWR sky130_fd_sc_hd__decap_8
XFILLER_73_512 VGND VPWR sky130_fd_sc_hd__decap_8
XFILLER_26_450 VGND VPWR sky130_fd_sc_hd__decap_8
XFILLER_26_483 VGND VPWR sky130_fd_sc_hd__decap_6
XFILLER_42_910 VGND VPWR sky130_fd_sc_hd__decap_8
XFILLER_14_667 VGND VPWR sky130_fd_sc_hd__decap_8
XFILLER_41_464 VGND VPWR sky130_fd_sc_hd__decap_12
XFILLER_139_363 VGND VPWR sky130_fd_sc_hd__decap_3
XFILLER_9_159 VGND VPWR sky130_fd_sc_hd__decap_12
XFILLER_6_800 VGND VPWR sky130_fd_sc_hd__decap_12
XFILLER_154_311 VGND VPWR sky130_fd_sc_hd__decap_12
XFILLER_10_873 VGND VPWR sky130_fd_sc_hd__decap_12
XFILLER_154_366 VGND VPWR sky130_fd_sc_hd__decap_6
XFILLER_108_772 VGND VPWR sky130_fd_sc_hd__fill_1
XFILLER_5_354 VGND VPWR sky130_fd_sc_hd__decap_12
XFILLER_123_720 VGND VPWR sky130_fd_sc_hd__decap_12
XFILLER_69_807 VGND VPWR sky130_fd_sc_hd__decap_8
XFILLER_122_274 VGND VPWR sky130_fd_sc_hd__fill_1
XFILLER_68_328 VGND VPWR sky130_fd_sc_hd__decap_8
XFILLER_83_309 VGND VPWR sky130_fd_sc_hd__decap_12
XFILLER_49_553 VGND VPWR sky130_fd_sc_hd__decap_12
XFILLER_92_832 VGND VPWR sky130_fd_sc_hd__decap_12
XFILLER_49_597 VGND VPWR sky130_fd_sc_hd__decap_12
XFILLER_92_865 VGND VPWR sky130_fd_sc_hd__decap_12
XFILLER_91_342 VGND VPWR sky130_fd_sc_hd__decap_12
XFILLER_91_331 VGND VPWR sky130_fd_sc_hd__fill_2
XFILLER_92_898 VGND VPWR sky130_fd_sc_hd__decap_12
XFILLER_17_483 VGND VPWR sky130_fd_sc_hd__decap_4
X_4960_ _4960_/A conf_sb[20] _4960_/Y VGND VPWR sky130_fd_sc_hd__nor2_4
X_3911_ _6343_/D _6359_/B VGND VPWR sky130_fd_sc_hd__buf_1
XFILLER_60_751 VGND VPWR sky130_fd_sc_hd__decap_12
X_4891_ _4819_/A _4891_/X VGND VPWR sky130_fd_sc_hd__buf_1
X_3842_ _3841_/Y _6228_/D VGND VPWR sky130_fd_sc_hd__buf_1
X_6630_ _6630_/A _6630_/B _6631_/C VGND VPWR sky130_fd_sc_hd__and2_4
XFILLER_60_773 VGND VPWR sky130_fd_sc_hd__decap_8
XFILLER_32_453 VGND VPWR sky130_fd_sc_hd__decap_4
X_6561_ _6552_/A _6536_/B _6525_/A _6558_/B _6561_/X VGND VPWR sky130_fd_sc_hd__and4_4
XFILLER_146_812 VGND VPWR sky130_fd_sc_hd__decap_12
X_3773_ _3760_/A conf_hcb[84] _3773_/Y VGND VPWR sky130_fd_sc_hd__nor2_4
X_5512_ _5466_/X _5468_/X _5498_/Y _5511_/X _5507_/X _5513_/B VGND VPWR sky130_fd_sc_hd__a32oi_4
X_6492_ _6487_/X _6489_/Y _6490_/X _6491_/Y _6492_/X VGND VPWR sky130_fd_sc_hd__a211o_4
XFILLER_118_536 VGND VPWR sky130_fd_sc_hd__decap_8
XFILLER_133_517 VGND VPWR sky130_fd_sc_hd__decap_12
X_5443_ _5441_/X _5443_/B _5444_/C VGND VPWR sky130_fd_sc_hd__and2_4
X_5374_ _5342_/A _5350_/B _5337_/A _5339_/A _5374_/X VGND VPWR sky130_fd_sc_hd__and4_4
XFILLER_114_742 VGND VPWR sky130_fd_sc_hd__decap_12
X_7113_ _4255_/X _4261_/X _7119_/B west_double_in[3] _7148_/B VGND VPWR sky130_fd_sc_hd__nor4_4
X_4325_ _4249_/A _4344_/A VGND VPWR sky130_fd_sc_hd__buf_1
XFILLER_113_274 VGND VPWR sky130_fd_sc_hd__fill_1
XFILLER_99_475 VGND VPWR sky130_fd_sc_hd__decap_12
X_4256_ _4252_/X _4255_/X _4241_/X _4257_/B VGND VPWR sky130_fd_sc_hd__a21o_4
XFILLER_87_659 VGND VPWR sky130_fd_sc_hd__decap_12
XFILLER_86_147 VGND VPWR sky130_fd_sc_hd__decap_6
X_7044_ _7075_/B _7079_/B VGND VPWR sky130_fd_sc_hd__buf_1
X_4187_ _4162_/X _4186_/Y _4182_/X _4187_/X VGND VPWR sky130_fd_sc_hd__a21o_4
XFILLER_68_862 VGND VPWR sky130_fd_sc_hd__decap_12
XFILLER_28_715 VGND VPWR sky130_fd_sc_hd__decap_12
XFILLER_68_895 VGND VPWR sky130_fd_sc_hd__decap_12
XFILLER_43_707 VGND VPWR sky130_fd_sc_hd__fill_2
XFILLER_43_718 VGND VPWR sky130_fd_sc_hd__decap_12
XFILLER_82_364 VGND VPWR sky130_fd_sc_hd__decap_12
XFILLER_70_526 VGND VPWR sky130_fd_sc_hd__fill_1
XFILLER_70_515 VGND VPWR sky130_fd_sc_hd__decap_4
XFILLER_63_39 VGND VPWR sky130_fd_sc_hd__decap_12
XFILLER_27_269 VGND VPWR sky130_fd_sc_hd__decap_12
XPHY_2205 VGND VPWR sky130_fd_sc_hd__tapvpwrvgnd_1
XPHY_2216 VGND VPWR sky130_fd_sc_hd__tapvpwrvgnd_1
XFILLER_70_559 VGND VPWR sky130_fd_sc_hd__fill_1
XPHY_905 VGND VPWR sky130_fd_sc_hd__tapvpwrvgnd_1
XPHY_927 VGND VPWR sky130_fd_sc_hd__tapvpwrvgnd_1
XPHY_916 VGND VPWR sky130_fd_sc_hd__tapvpwrvgnd_1
XFILLER_42_239 VGND VPWR sky130_fd_sc_hd__decap_12
XPHY_2249 VGND VPWR sky130_fd_sc_hd__tapvpwrvgnd_1
XPHY_2238 VGND VPWR sky130_fd_sc_hd__tapvpwrvgnd_1
XPHY_2227 VGND VPWR sky130_fd_sc_hd__tapvpwrvgnd_1
X_6828_ _4107_/X _6786_/X _6782_/X _6828_/D _6828_/Y VGND VPWR sky130_fd_sc_hd__nor4_4
XPHY_1515 VGND VPWR sky130_fd_sc_hd__tapvpwrvgnd_1
XPHY_1504 VGND VPWR sky130_fd_sc_hd__tapvpwrvgnd_1
XPHY_938 VGND VPWR sky130_fd_sc_hd__tapvpwrvgnd_1
XPHY_949 VGND VPWR sky130_fd_sc_hd__tapvpwrvgnd_1
XPHY_1548 VGND VPWR sky130_fd_sc_hd__tapvpwrvgnd_1
XPHY_1537 VGND VPWR sky130_fd_sc_hd__tapvpwrvgnd_1
XPHY_1526 VGND VPWR sky130_fd_sc_hd__tapvpwrvgnd_1
XFILLER_50_272 VGND VPWR sky130_fd_sc_hd__decap_3
XFILLER_149_672 VGND VPWR sky130_fd_sc_hd__decap_12
X_6759_ _6759_/A _6720_/B _6721_/A _6497_/D _6759_/Y VGND VPWR sky130_fd_sc_hd__nor4_4
XPHY_1559 VGND VPWR sky130_fd_sc_hd__tapvpwrvgnd_1
XFILLER_7_608 VGND VPWR sky130_fd_sc_hd__fill_2
XFILLER_12_32 VGND VPWR sky130_fd_sc_hd__decap_12
XFILLER_6_129 VGND VPWR sky130_fd_sc_hd__decap_12
XFILLER_137_867 VGND VPWR sky130_fd_sc_hd__decap_12
XFILLER_128_32 VGND VPWR sky130_fd_sc_hd__decap_12
XFILLER_124_517 VGND VPWR sky130_fd_sc_hd__fill_2
XFILLER_152_837 VGND VPWR sky130_fd_sc_hd__decap_12
XFILLER_136_388 VGND VPWR sky130_fd_sc_hd__decap_8
XFILLER_105_731 VGND VPWR sky130_fd_sc_hd__fill_1
XFILLER_2_335 VGND VPWR sky130_fd_sc_hd__fill_1
XFILLER_120_701 VGND VPWR sky130_fd_sc_hd__fill_1
XFILLER_104_274 VGND VPWR sky130_fd_sc_hd__fill_1
XFILLER_77_114 VGND VPWR sky130_fd_sc_hd__decap_8
XFILLER_59_895 VGND VPWR sky130_fd_sc_hd__decap_12
XFILLER_37_51 VGND VPWR sky130_fd_sc_hd__decap_8
XFILLER_100_491 VGND VPWR sky130_fd_sc_hd__fill_1
XFILLER_73_342 VGND VPWR sky130_fd_sc_hd__decap_12
XFILLER_37_62 VGND VPWR sky130_fd_sc_hd__decap_12
XFILLER_74_898 VGND VPWR sky130_fd_sc_hd__decap_12
XFILLER_147_609 VGND VPWR sky130_fd_sc_hd__fill_1
XFILLER_128_812 VGND VPWR sky130_fd_sc_hd__decap_12
XFILLER_154_130 VGND VPWR sky130_fd_sc_hd__decap_8
XFILLER_5_184 VGND VPWR sky130_fd_sc_hd__decap_12
X_4110_ _4110_/A conf_hcb[27] _4115_/A VGND VPWR sky130_fd_sc_hd__nor2_4
XFILLER_78_91 VGND VPWR sky130_fd_sc_hd__fill_1
X_5090_ _7764_/Q _5085_/Y _5089_/X _6663_/A VGND VPWR sky130_fd_sc_hd__o21ai_4
X_4041_ _6644_/C _6670_/A VGND VPWR sky130_fd_sc_hd__buf_1
XFILLER_83_106 VGND VPWR sky130_fd_sc_hd__decap_8
XFILLER_83_117 VGND VPWR sky130_fd_sc_hd__decap_4
XFILLER_94_90 VGND VPWR sky130_fd_sc_hd__fill_2
XFILLER_64_320 VGND VPWR sky130_fd_sc_hd__decap_12
X_5992_ _5991_/X _6008_/A VGND VPWR sky130_fd_sc_hd__buf_1
XFILLER_65_898 VGND VPWR sky130_fd_sc_hd__decap_12
X_7731_ _3856_/Y _6191_/B _7732_/CLK VGND VPWR sky130_fd_sc_hd__dfxtp_4
XFILLER_24_239 VGND VPWR sky130_fd_sc_hd__decap_12
X_4943_ _4934_/A conf_sb[24] _4943_/Y VGND VPWR sky130_fd_sc_hd__nor2_4
X_7662_ _4267_/Y _7662_/Q _7726_/CLK VGND VPWR sky130_fd_sc_hd__dfxtp_4
X_6613_ _4013_/Y _6620_/B _6615_/C _6348_/X _6609_/X _6613_/Y VGND VPWR sky130_fd_sc_hd__a32oi_4
X_4874_ _4868_/X _4873_/Y _4859_/X _4874_/X VGND VPWR sky130_fd_sc_hd__a21o_4
XFILLER_60_581 VGND VPWR sky130_fd_sc_hd__decap_12
X_3825_ _3854_/A _3825_/X VGND VPWR sky130_fd_sc_hd__buf_1
XFILLER_20_467 VGND VPWR sky130_fd_sc_hd__decap_12
X_7593_ _4632_/Y _7593_/Q _7571_/CLK VGND VPWR sky130_fd_sc_hd__dfxtp_4
XFILLER_146_642 VGND VPWR sky130_fd_sc_hd__decap_12
X_6544_ _6606_/A1 _6541_/Y _6543_/Y _6544_/Y VGND VPWR sky130_fd_sc_hd__a21oi_4
XFILLER_119_834 VGND VPWR sky130_fd_sc_hd__decap_12
XFILLER_118_333 VGND VPWR sky130_fd_sc_hd__decap_3
Xclkbuf_4_12_0_clk clkbuf_3_6_0_clk/X clkbuf_5_25_0_clk/A VGND VPWR sky130_fd_sc_hd__clkbuf_1
X_3756_ _3733_/A _3756_/X VGND VPWR sky130_fd_sc_hd__buf_1
X_6475_ _6471_/Y _6474_/X _6450_/X _6475_/Y VGND VPWR sky130_fd_sc_hd__o21ai_4
XFILLER_119_867 VGND VPWR sky130_fd_sc_hd__decap_12
XFILLER_106_506 VGND VPWR sky130_fd_sc_hd__decap_12
XFILLER_145_174 VGND VPWR sky130_fd_sc_hd__decap_8
XFILLER_134_837 VGND VPWR sky130_fd_sc_hd__decap_12
X_3687_ _7763_/Q _3687_/Y VGND VPWR sky130_fd_sc_hd__inv_8
X_5426_ _7256_/D _5571_/D VGND VPWR sky130_fd_sc_hd__buf_1
XFILLER_121_509 VGND VPWR sky130_fd_sc_hd__decap_8
XFILLER_102_712 VGND VPWR sky130_fd_sc_hd__decap_12
X_5357_ _5343_/B _5357_/B _5358_/A VGND VPWR sky130_fd_sc_hd__or2_4
X_4308_ _4321_/A conf_vcb[96] _4308_/Y VGND VPWR sky130_fd_sc_hd__nor2_4
X_5288_ _5288_/A _5262_/X _5288_/C _5289_/D VGND VPWR sky130_fd_sc_hd__and3_4
XFILLER_114_23 VGND VPWR sky130_fd_sc_hd__decap_8
X_4239_ _7074_/B _7078_/B VGND VPWR sky130_fd_sc_hd__buf_1
X_7027_ _7012_/A _7016_/B _6841_/C _6983_/X _7028_/B VGND VPWR sky130_fd_sc_hd__or4_4
XFILLER_114_67 VGND VPWR sky130_fd_sc_hd__decap_8
XFILLER_101_288 VGND VPWR sky130_fd_sc_hd__decap_12
XFILLER_74_139 VGND VPWR sky130_fd_sc_hd__decap_3
XFILLER_74_27 VGND VPWR sky130_fd_sc_hd__decap_4
XFILLER_71_802 VGND VPWR sky130_fd_sc_hd__fill_1
XFILLER_83_684 VGND VPWR sky130_fd_sc_hd__decap_8
XFILLER_83_662 VGND VPWR sky130_fd_sc_hd__decap_8
XFILLER_56_898 VGND VPWR sky130_fd_sc_hd__fill_2
XFILLER_130_44 VGND VPWR sky130_fd_sc_hd__decap_12
XFILLER_71_846 VGND VPWR sky130_fd_sc_hd__decap_8
XPHY_702 VGND VPWR sky130_fd_sc_hd__tapvpwrvgnd_1
XFILLER_43_559 VGND VPWR sky130_fd_sc_hd__decap_12
XPHY_2035 VGND VPWR sky130_fd_sc_hd__tapvpwrvgnd_1
XPHY_2013 VGND VPWR sky130_fd_sc_hd__tapvpwrvgnd_1
XPHY_2024 VGND VPWR sky130_fd_sc_hd__tapvpwrvgnd_1
XPHY_2002 VGND VPWR sky130_fd_sc_hd__tapvpwrvgnd_1
XFILLER_24_762 VGND VPWR sky130_fd_sc_hd__fill_1
XPHY_713 VGND VPWR sky130_fd_sc_hd__tapvpwrvgnd_1
XPHY_735 VGND VPWR sky130_fd_sc_hd__tapvpwrvgnd_1
XPHY_724 VGND VPWR sky130_fd_sc_hd__tapvpwrvgnd_1
XPHY_2068 VGND VPWR sky130_fd_sc_hd__tapvpwrvgnd_1
XPHY_2057 VGND VPWR sky130_fd_sc_hd__tapvpwrvgnd_1
XPHY_2046 VGND VPWR sky130_fd_sc_hd__tapvpwrvgnd_1
XPHY_1323 VGND VPWR sky130_fd_sc_hd__tapvpwrvgnd_1
XPHY_1312 VGND VPWR sky130_fd_sc_hd__tapvpwrvgnd_1
XPHY_1301 VGND VPWR sky130_fd_sc_hd__tapvpwrvgnd_1
XPHY_746 VGND VPWR sky130_fd_sc_hd__tapvpwrvgnd_1
XPHY_757 VGND VPWR sky130_fd_sc_hd__tapvpwrvgnd_1
XPHY_768 VGND VPWR sky130_fd_sc_hd__tapvpwrvgnd_1
XFILLER_135_3 VGND VPWR sky130_fd_sc_hd__decap_12
XPHY_2079 VGND VPWR sky130_fd_sc_hd__tapvpwrvgnd_1
XPHY_1356 VGND VPWR sky130_fd_sc_hd__tapvpwrvgnd_1
XPHY_1345 VGND VPWR sky130_fd_sc_hd__tapvpwrvgnd_1
XPHY_1334 VGND VPWR sky130_fd_sc_hd__tapvpwrvgnd_1
XPHY_779 VGND VPWR sky130_fd_sc_hd__tapvpwrvgnd_1
XPHY_1389 VGND VPWR sky130_fd_sc_hd__tapvpwrvgnd_1
XPHY_1378 VGND VPWR sky130_fd_sc_hd__tapvpwrvgnd_1
XPHY_1367 VGND VPWR sky130_fd_sc_hd__tapvpwrvgnd_1
XFILLER_11_489 VGND VPWR sky130_fd_sc_hd__decap_8
XFILLER_23_86 VGND VPWR sky130_fd_sc_hd__decap_12
XFILLER_99_35 VGND VPWR sky130_fd_sc_hd__decap_12
XFILLER_136_185 VGND VPWR sky130_fd_sc_hd__decap_3
XFILLER_136_152 VGND VPWR sky130_fd_sc_hd__fill_1
XFILLER_3_611 VGND VPWR sky130_fd_sc_hd__decap_12
XFILLER_124_358 VGND VPWR sky130_fd_sc_hd__decap_8
Xpsn_inst_psn_buff_90 psn_inst_psn_buff_90/A psn_inst_psn_buff_90/X VGND VPWR sky130_fd_sc_hd__buf_1
XFILLER_152_678 VGND VPWR sky130_fd_sc_hd__decap_12
XFILLER_105_550 VGND VPWR sky130_fd_sc_hd__decap_6
XFILLER_2_154 VGND VPWR sky130_fd_sc_hd__decap_12
XFILLER_132_380 VGND VPWR sky130_fd_sc_hd__fill_2
XFILLER_120_531 VGND VPWR sky130_fd_sc_hd__decap_12
XFILLER_120_520 VGND VPWR sky130_fd_sc_hd__fill_2
XFILLER_66_618 VGND VPWR sky130_fd_sc_hd__fill_1
XFILLER_47_821 VGND VPWR sky130_fd_sc_hd__decap_8
XFILLER_19_534 VGND VPWR sky130_fd_sc_hd__decap_12
XFILLER_62_868 VGND VPWR sky130_fd_sc_hd__decap_12
XFILLER_34_548 VGND VPWR sky130_fd_sc_hd__fill_2
XFILLER_64_93 VGND VPWR sky130_fd_sc_hd__decap_4
XFILLER_61_367 VGND VPWR sky130_fd_sc_hd__fill_2
XFILLER_42_581 VGND VPWR sky130_fd_sc_hd__decap_4
XPHY_2580 VGND VPWR sky130_fd_sc_hd__tapvpwrvgnd_1
XPHY_2591 VGND VPWR sky130_fd_sc_hd__tapvpwrvgnd_1
XFILLER_147_428 VGND VPWR sky130_fd_sc_hd__fill_2
X_4590_ _4568_/X conf_vcb[43] _4590_/Y VGND VPWR sky130_fd_sc_hd__nor2_4
XFILLER_128_642 VGND VPWR sky130_fd_sc_hd__decap_12
XPHY_1890 VGND VPWR sky130_fd_sc_hd__tapvpwrvgnd_1
XFILLER_143_623 VGND VPWR sky130_fd_sc_hd__decap_12
XFILLER_116_837 VGND VPWR sky130_fd_sc_hd__decap_12
XFILLER_142_133 VGND VPWR sky130_fd_sc_hd__decap_12
XFILLER_142_122 VGND VPWR sky130_fd_sc_hd__decap_8
X_6260_ _6260_/A _6261_/B VGND VPWR sky130_fd_sc_hd__buf_1
XFILLER_115_336 VGND VPWR sky130_fd_sc_hd__fill_1
Xclkbuf_3_1_0_clk clkbuf_3_1_0_clk/A clkbuf_4_3_0_clk/A VGND VPWR sky130_fd_sc_hd__clkbuf_1
XFILLER_50_3 VGND VPWR sky130_fd_sc_hd__decap_12